data_Na2Cl2
_symmetry_space_group_name_H-M P4/nmm
_cell_length_a 4.9284
_cell_length_b 4.9284
_cell_length_c 4.0312
_cell_angle_alpha 90.0000
_cell_angle_beta 90.0000
_cell_angle_gamma 90.0000
_symmetry_Int_Tables_number 129
_chemical_formula_structural NaCl
_chemical_formula_sum 'Na2 Cl2'
_cell_volume 98.0958
_cell_formula_units_Z 2
loop_
 _symmetry_equiv_pos_site_id
 _symmetry_equiv_pos_as_xyz
  1  'x+1/2, y+1/2, -z'
  2  '-y, x, -z'
  3  '-x, y, z'
  4  'y+1/2, -x+1/2, z'
  5  'x+1/2, -y+1/2, -z'
  6  '-y+1/2, x+1/2, z'
  7  '-x, -y, z'
  8  'x, y, z'
  9  'y, x, -z'
  10  '-x+1/2, y+1/2, -z'
  11  '-y, -x, -z'
  12  '-x+1/2, -y+1/2, -z'
  13  'y, -x, -z'
  14  '-y+1/2, -x+1/2, z'
  15  'x, -y, z'
  16  'y+1/2, x+1/2, z'
loop_
_atom_site_type_symbol
_atom_site_label
_atom_site_symmetry_multiplicity
_atom_site_fract_x
_atom_site_fract_y
_atom_site_fract_z
_atom_site_occupancy
Na Na0 2 0.0000 0.0000 0.0000 1
Cl Cl1 2 0.0000 0.5000 0.6046 1

